Version 4
SHEET 1 880 680
WIRE 0 128 -64 128
WIRE 112 128 80 128
WIRE 240 128 192 128
WIRE 320 128 240 128
WIRE 432 128 400 128
WIRE 448 128 432 128
FLAG 240 192 0
FLAG 448 192 0
FLAG 432 128 Vo
FLAG -64 208 0
FLAG 80 192 0
FLAG -64 128 Vin
SYMBOL cap 224 128 R0
WINDOW 3 41 29 Left 2
SYMATTR InstName C1
SYMATTR Value 4p
SYMBOL res 208 112 R90
WINDOW 0 0 56 VBottom 2
WINDOW 3 32 56 VTop 2
SYMATTR InstName R1
SYMATTR Value 12k
SYMBOL cap 432 128 R0
WINDOW 3 41 29 Left 2
SYMATTR InstName C2
SYMATTR Value 10p
SYMBOL res 416 112 R90
WINDOW 0 0 56 VBottom 2
WINDOW 3 32 56 VTop 2
SYMATTR InstName R2
SYMATTR Value 8k
SYMBOL voltage -64 112 R0
WINDOW 3 24 152 Left 2
WINDOW 123 24 124 Left 2
WINDOW 39 0 0 Left 0
SYMATTR InstName V1
SYMATTR Value SINE(2.5 1 {F})
SYMATTR Value2 AC 1
SYMBOL res 96 112 R90
WINDOW 0 0 56 VBottom 2
WINDOW 3 32 56 VTop 2
SYMATTR InstName R3
SYMATTR Value 1k
SYMBOL cap 64 128 R0
SYMATTR InstName C3
SYMATTR Value 100n
TEXT -116 256 Left 2 !.tran 1
TEXT -448 120 Left 2 !.meas t1 when v(vin)=2.8\n.meas t2 when v(vo)=2.8\n.meas deltaT param (t2-t1)
TEXT -448 200 Left 2 !.step param F 1 1k 1
